#======================================================================

# CRYSTAL DATA

#----------------------------------------------------------------------

_pd_phase_name                         '(La0.85Sr0.15)CrO3'
_cell_length_a                         5.4587(2)
_cell_length_b                         5.4587(2)
_cell_length_c                         5.4587(2)
_cell_angle_alpha                      60.592(2)
_cell_angle_beta                       60.592(2)
_cell_angle_gamma                      60.592(2)
_symmetry_space_group_name_H-M         'R -3 c '
_symmetry_Int_Tables_number            167

loop_
_symmetry_equiv_pos_as_xyz
   'x, y, z'
   '-x, -y, -z'
   'z, x, y'
   '-z, -x, -y'
   'y, z, x'
   '-y, -z, -x'
   '-y+1/2, -x+1/2, -z+1/2'
   'y+1/2, x+1/2, z+1/2'
   '-x+1/2, -z+1/2, -y+1/2'
   'x+1/2, z+1/2, y+1/2'
   '-z+1/2, -y+1/2, -x+1/2'
   'z+1/2, y+1/2, x+1/2'

loop_
   _atom_site_label
   _atom_site_occupancy
   _atom_site_fract_x
   _atom_site_fract_y
   _atom_site_fract_z
   _atom_site_thermal_displace_type
   _atom_site_B_iso_or_equiv
   _atom_site_type_symbol
   LS      1    0.25         0.25         0.25        Biso  0.31  La
   Cr      1    0            0            0           Biso  0.30  Cr
   O       1   -0.300(1)     0.800(1)     0.25        Biso  0.59  O
