#======================================================================

# CRYSTAL DATA

#----------------------------------------------------------------------

_pd_phase_name                         'La9.33(SiO4)6O2'
_cell_length_a                         9.714(1)
_cell_length_b                         9.714(1)
_cell_length_c                         7.183(2)
_cell_angle_alpha                      90
_cell_angle_beta                       90
_cell_angle_gamma                      120
_symmetry_space_group_name_H-M         'P 63/m  '
_symmetry_Int_Tables_number            176

loop_
_symmetry_equiv_pos_as_xyz
   'x, y, z'
   '-x, -y, -z'
   '-y, x-y, z'
   'y, -x+y, -z'
   '-x+y, -x, z'
   'x-y, x, -z'
   '-x, -y, z+1/2'
   'x, y, -z+1/2'
   'y, -x+y, z+1/2'
   '-y, x-y, -z+1/2'
   'x-y, x, z+1/2'
   '-x+y, -x, -z+1/2'

loop_
   _atom_site_label
   _atom_site_occupancy
   _atom_site_fract_x
   _atom_site_fract_y
   _atom_site_fract_z
   _atom_site_thermal_displace_type
   _atom_site_B_iso_or_equiv
   _atom_site_type_symbol
   La1      1    0.66667      0.33333      0.00118(8)  Biso  0.97  La
   La2      1    0.01223(3)   0.23921(3)   0.25        Biso  0.78  La
   Si       1    0.4029(2)    0.3728(2)    0.25        Biso  0.61  Si
   O1       1    0.3255(6)    0.4873(6)    0.25        Biso  1.6   O
   O2       1    0.5267(5)    0.1232(5)    0.25        Biso  1.3   O
   O3       1    0.3476(5)    0.2564(3)    0.0684(5)   Biso  2.1   O
   O4       1    0            0            0.25        Biso  6.5   O
