#======================================================================

# CRYSTAL DATA

#----------------------------------------------------------------------

_pd_phase_name                         'La0.55Li0.35TiO3'
_cell_length_a                         7.7383(2)
_cell_length_b                         7.7422(1)
_cell_length_c                         7.7364(3)
_cell_angle_alpha                      90
_cell_angle_beta                       90
_cell_angle_gamma                      90
_symmetry_space_group_name_H-M         'C m m m'
_symmetry_Int_Tables_number            65

loop_
_symmetry_equiv_pos_as_xyz
   'x, y, z'
   '-x, -y, -z'
   '-x, -y, z'
   'x, y, -z'
   '-x, y, -z'
   'x, -y, z'
   'x, -y, -z'
   '-x, y, z'
   'x+1/2, y+1/2, z'
   '-x+1/2, -y+1/2, -z'
   '-x+1/2, -y+1/2, z'
   'x+1/2, y+1/2, -z'
   '-x+1/2, y+1/2, -z'
   'x+1/2, -y+1/2, z'
   'x+1/2, -y+1/2, -z'
   '-x+1/2, y+1/2, z'

loop_
   _atom_site_label
   _atom_site_occupancy
   _atom_site_fract_x
   _atom_site_fract_y
   _atom_site_fract_z
   _atom_site_thermal_displace_type
   _atom_site_B_iso_or_equiv
   _atom_site_type_symbol
   La1      1    0            0.2483(18)   0           Biso  0.41  La
   La2      1    0            0.257(3)     0.5         Biso  0.41  La
   Li1      1    0.5          0.5          0           Biso  6.1   Li
   Li2      1    0.5          0.183(8)     0.5         Biso  6.1   Li
   Ti       1    0.2468(27)   0            0.2491(11)  Biso  1.13  Ti
   O1       1    0.2855(14)   0            0           Biso  1.78  O
   O2       1    0.2153(15)   0            0.5         Biso  1.83  O
   O3       1    0            0            0.2154(16)  Biso  2.0   O
   O4       1    0            0.5          0.2680(17)  Biso  1.5   O
   O5       1    0.25         0.25         0.2420(16)  Biso  2.25  O
