#======================================================================

# CRYSTAL DATA

#----------------------------------------------------------------------

_pd_phase_name                         'MgB2'
_cell_length_a                         3.08489(3)
_cell_length_b                         3.08489(3)
_cell_length_c                         3.52107(5)
_cell_angle_alpha                      90
_cell_angle_beta                       90
_cell_angle_gamma                      120
_symmetry_space_group_name_H-M         'P 6/m m m'
_symmetry_Int_Tables_number            191

loop_
_symmetry_equiv_pos_as_xyz
   'x, y, z'
   '-x, -y, -z'
   '-y, x-y, z'
   'y, -x+y, -z'
   '-x+y, -x, z'
   'x-y, x, -z'
   '-x, -y, z'
   'x, y, -z'
   'y, -x+y, z'
   '-y, x-y, -z'
   'x-y, x, z'
   '-x+y, -x, -z'
   'y, x, -z'
   '-y, -x, z'
   'x-y, -y, -z'
   '-x+y, y, z'
   '-x, -x+y, -z'
   'x, x-y, z'
   '-y, -x, -z'
   'y, x, z'
   '-x+y, y, -z'
   'x-y, -y, z'
   'x, x-y, -z'
   '-x, -x+y, z'

loop_
   _atom_site_label
   _atom_site_occupancy
   _atom_site_fract_x
   _atom_site_fract_y
   _atom_site_fract_z
   _atom_site_thermal_displace_type
   _atom_site_B_iso_or_equiv
   _atom_site_type_symbol
   Mg       1    0            0            0           Biso  0.43  Mg
   B        1    0.33333      0.66667      0.5         Biso  0.41  B
