#======================================================================

# CRYSTAL DATA

#----------------------------------------------------------------------

_pd_phase_name                         'KAl2(Al0.908Si3.092O10)((OH)0.94F0.06)2'
_cell_length_a                         5.1579(9)
_cell_length_b                         8.9505(8)
_cell_length_c                         20.071(5)
_cell_angle_alpha                      90
_cell_angle_beta                       95.75(2)
_cell_angle_gamma                      90
_symmetry_space_group_name_H-M         'C 2/c  '
_symmetry_Int_Tables_number            15

loop_
_symmetry_equiv_pos_as_xyz
   'x, y, z'
   '-x, -y, -z'
   '-x, y, -z+1/2'
   'x, -y, z+1/2'
   'x+1/2, y+1/2, z'
   '-x+1/2, -y+1/2, -z'
   '-x+1/2, y+1/2, -z+1/2'
   'x+1/2, -y+1/2, z+1/2'

loop_
   _atom_site_label
   _atom_site_occupancy
   _atom_site_fract_x
   _atom_site_fract_y
   _atom_site_fract_z
   _atom_site_thermal_displace_type
   _atom_site_B_iso_or_equiv
   _atom_site_type_symbol
   K        1    0            0.0989(2)    0.25        Biso 1.79   K
   Al       1    0.2509(2)    0.0836(1)    0.00002(5)  Biso 0.68   Al
   SA1      1    0.4649(2)    0.9297(1)    0.13481(5)  Biso 0.72   Si
   SA2      1    0.4516(2)    0.2584(1)    0.13495(5)  Biso 0.77   Si
   O1       1    0.4133(6)    0.0924(3)    0.1672(1)   Biso 1.37   O
   O2       1    0.2521(5)    0.8099(3)    0.1569(1)   Biso 1.46   O
   O3       1    0.2517(5)    0.3712(3)    0.1678(1)   Biso 1.28   O
   O4       1    0.4618(5)    0.9435(3)    0.0532(1)   Biso 0.82   O
   O5       1    0.3843(5)    0.2520(5)    0.0532(1)   Biso 0.84   O
   OHF      1    0.4575(5)    0.5618(3)    0.0499(1)   Biso 0.92   O
