#======================================================================

# CRYSTAL DATA

#----------------------------------------------------------------------

_pd_phase_name                         'YBa2Cu3O6.89'
_cell_length_a                         3.8800(3)
_cell_length_b                         3.8122(3)
_cell_length_c                         11.6264(9)
_cell_angle_alpha                      90
_cell_angle_beta                       90
_cell_angle_gamma                      90
_symmetry_space_group_name_H-M         'P m m m'
_symmetry_Int_Tables_number            47

loop_
_symmetry_equiv_pos_as_xyz
   'x, y, z'
   '-x, -y, -z'
   '-x, -y, z'
   'x, y, -z'
   '-x, y, -z'
   'x, -y, z'
   'x, -y, -z'
   '-x, y, z'

loop_
   _atom_site_label
   _atom_site_occupancy
   _atom_site_fract_x
   _atom_site_fract_y
   _atom_site_fract_z
   _atom_site_thermal_displace_type
   _atom_site_B_iso_or_equiv
   _atom_site_type_symbol
   Y        1    0.5      0.5      0.5         Biso  0.03  Y
   Ba       1    0.5      0.5      0.1845(4)   Biso  0.09  Ba
   Cu1      1    0        0        0           Biso  0.02  Cu
   Cu2      1    0        0        0.3536(2)   Biso  0.19  Cu
   O1       1    0.5      0        0           Biso  0.05  O
   O2       1    0        0.5      0           Biso  0.05  O
   O3       1    0        0        0.1595(3)   Biso  0.25  O
   O4       1    0        0.5      0.3779(4)   Biso  0.20  O
   O5       1    0.5      0        0.3773(4)   Biso  0.23  O
