#======================================================================

# CRYSTAL DATA

#----------------------------------------------------------------------

_pd_phase_name                         '(ZrO2)0.97(Y2O3)0.03'
_cell_length_a                         3.6067(4)
_cell_length_b                         3.6067(4)
_cell_length_c                         5.1758(8)
_cell_angle_alpha                      90
_cell_angle_beta                       90
_cell_angle_gamma                      90
_symmetry_space_group_name_H-M         'P 42/n m c'
_symmetry_Int_Tables_number            137

loop_
_symmetry_equiv_pos_as_xyz
   'x, y, z'
   '-x, -y, z'
   '-y+1/2, x+1/2, z+1/2'
   'y+1/2, -x+1/2, z+1/2'
   '-x+1/2, y+1/2, -z+1/2'
   'x+1/2, -y+1/2, -z+1/2'
   'y, x, -z'
   '-y, -x, -z'
   '-x+1/2, -y+1/2, -z+1/2'
   'x+1/2, y+1/2, -z+1/2'
   'y, -x, -z'
   '-y, x, -z'
   'x, -y, z'
   '-x, y, z'
   '-y+1/2, -x+1/2, z+1/2'
   'y+1/2, x+1/2, z+1/2'

loop_
   _atom_site_label
   _atom_site_occupancy
   _atom_site_fract_x
   _atom_site_fract_y
   _atom_site_fract_z
   _atom_site_thermal_displace_type
   _atom_site_B_iso_or_equiv
   _atom_site_type_symbol
   ZY       1     0            0            0           Biso  0.37  Zr
   O        1     0            0.5          0.4589(4)   Biso  0.7   O
