#======================================================================

# CRYSTAL DATA

#----------------------------------------------------------------------

_pd_phase_name                         'CaCl2'
_cell_length_a                         6.43763(5)
_cell_length_b                         6.28765(5)
_cell_length_c                         4.17823(1)
_cell_angle_alpha                      90
_cell_angle_beta                       90
_cell_angle_gamma                      90
_symmetry_space_group_name_H-M         'P n n m'
_symmetry_Int_Tables_number            58

loop_
_symmetry_equiv_pos_as_xyz
   'x, y, z'
   '-x, -y, -z'
   '-x, -y, z'
   'x, y, -z'
   '-x+1/2, y+1/2, -z+1/2'
   'x+1/2, -y+1/2, z+1/2'
   'x+1/2, -y+1/2, -z+1/2'
   '-x+1/2, y+1/2, z+1/2'

loop_
   _atom_site_label
   _atom_site_occupancy
   _atom_site_fract_x
   _atom_site_fract_y
   _atom_site_fract_z
   _atom_site_thermal_displace_type
   _atom_site_B_iso_or_equiv
   _atom_site_type_symbol
   Ca       1    0            0            0           Biso  1.5   Ca
   Cl       1    0.3249(3)    0.2822(2)    0           Biso  0.87  Cl
