#======================================================================

# CRYSTAL DATA

#----------------------------------------------------------------------

_pd_phase_name                         'H2O'
_cell_length_a                         4.511(3)
_cell_length_b                         4.511(3)
_cell_length_c                         7.346(3)
_cell_angle_alpha                      90
_cell_angle_beta                       90
_cell_angle_gamma                      120
_symmetry_space_group_name_H-M         'P 63/m m c'
_symmetry_Int_Tables_number            194

loop_
_symmetry_equiv_pos_as_xyz
   'x, y, z'
   '-x, -y, -z'
   '-y, x-y, z'
   'y, -x+y, -z'
   '-x+y, -x, z'
   'x-y, x, -z'
   '-x, -y, z+1/2'
   'x, y, -z+1/2'
   'y, -x+y, z+1/2'
   '-y, x-y, -z+1/2'
   'x-y, x, z+1/2'
   '-x+y, -x, -z+1/2'
   'y, x, -z'
   '-y, -x, z'
   'x-y, -y, -z'
   '-x+y, y, z'
   '-x, -x+y, -z'
   'x, x-y, z'
   '-y, -x, -z+1/2'
   'y, x, z+1/2'
   '-x+y, y, -z+1/2'
   'x-y, -y, z+1/2'
   'x, x-y, -z+1/2'
   '-x, -x+y, z+1/2'

loop_
   _atom_site_label
   _atom_site_occupancy
   _atom_site_fract_x
   _atom_site_fract_y
   _atom_site_fract_z
   _atom_site_thermal_displace_type
   _atom_site_B_iso_or_equiv
   _atom_site_type_symbol
   H1       0.5    0.33333      0.66667      0.178(3)    Biso  2.5  H
   H2       0.5    0.439(3)     0.878(4)     0.020(2)    Biso  2.9  H
   O        1      0.33333      0.66667      0.06226(8)  Biso  3.7  O
