#======================================================================

# CRYSTAL DATA

#----------------------------------------------------------------------

_pd_phase_name                         '(K0.59Na0.22Ba0.19)Al1.13Fe0.05Si2.82O8'
_cell_length_a                         8.516(1)
_cell_length_b                         13.023(2)
_cell_length_c                         7.206(1)
_cell_angle_alpha                      90
_cell_angle_beta                       115.90(5)
_cell_angle_gamma                      90
_symmetry_space_group_name_H-M         'C 2/m  '
_symmetry_Int_Tables_number            12

loop_
_symmetry_equiv_pos_as_xyz
   'x, y, z'
   '-x, -y, -z'
   '-x, y, -z'
   'x, -y, z'
   'x+1/2, y+1/2, z'
   '-x+1/2, -y+1/2, -z'
   '-x+1/2, y+1/2, -z'
   'x+1/2, -y+1/2, z'

loop_
   _atom_site_label
   _atom_site_occupancy
   _atom_site_fract_x
   _atom_site_fract_y
   _atom_site_fract_z
   _atom_site_thermal_displace_type
   _atom_site_B_iso_or_equiv
   _atom_site_type_symbol
   KNB      1    0.2826(1)    0            0.1345(1)   Biso 1.94   K
   SAF1     1    0.0087(1)    0.1831(1)    0.2240(1)   Biso 0.95   Si
   SAF2     1    0.7046(1)    0.1175(1)    0.3445(1)   Biso 0.95   Si
   O1       1    0            0.1429(2)    0           Biso 1.80   O
   O2       1    0.6273(4)    0            0.2864(4)   Biso 1.80   O
   O3       1    0.8260(3)    0.1422(2)    0.2270(3)   Biso 2.08   O
   O4       1    0.0308(3)    0.3101(2)    0.2567(3)   Biso 1.71   O
   O5       1    0.1841(3)    0.1254(2)    0.4045(3)   Biso 1.70   O
 