#======================================================================

# CRYSTAL DATA

#----------------------------------------------------------------------

_pd_phase_name                         'LaFeAsO'
_cell_length_a                         4.03533(4)
_cell_length_b                         4.03533(4)
_cell_length_c                         8.74090(9)
_cell_angle_alpha                      90
_cell_angle_beta                       90
_cell_angle_gamma                      90
_symmetry_space_group_name_H-M         'P 4/n m m'
_symmetry_Int_Tables_number            129

loop_
_symmetry_equiv_pos_as_xyz
   'x, y, z'
   '-x, -y, z'
   '-y+1/2, x+1/2, z'
   'y+1/2, -x+1/2, z'
   '-x+1/2, y+1/2, -z'
   'x+1/2, -y+1/2, -z'
   'y, x, -z'
   '-y, -x, -z'
   '-x+1/2, -y+1/2, -z'
   'x+1/2, y+1/2, -z'
   'y, -x, -z'
   '-y, x, -z'
   'x, -y, z'
   '-x, y, z'
   '-y+1/2, -x+1/2, z'
   'y+1/2, x+1/2, z'

loop_
   _atom_site_label
   _atom_site_occupancy
   _atom_site_fract_x
   _atom_site_fract_y
   _atom_site_fract_z
   _atom_site_thermal_displace_type
   _atom_site_B_iso_or_equiv
   _atom_site_type_symbol
   La       1    0.25      0.25      0.14154(5)  Biso  0.38  La
   Fe       1    0.75      0.25      0.5         Biso  0.27  Fe
   As       1    0.25      0.25      0.6512(2)   Biso  0.54  As
   O        1    0.75      0.25      0           Biso  2.3   O
