#======================================================================

# CRYSTAL DATA

#----------------------------------------------------------------------

_pd_phase_name                         'LaFePO'
_cell_length_a                         3.96307(4)
_cell_length_b                         3.96307(4)
_cell_length_c                         8.5087(1)
_cell_angle_alpha                      90
_cell_angle_beta                       90
_cell_angle_gamma                      90
_symmetry_space_group_name_H-M         'P 4/n m m'
_symmetry_Int_Tables_number            129

loop_
_symmetry_equiv_pos_as_xyz
   'x, y, z'
   '-x, -y, -z'
   '-x+1/2, -y+1/2, z'
   'x+1/2, y+1/2, -z'
   '-y+1/2, x, z'
   'y+1/2, -x, -z'
   'y, -x+1/2, z'
   '-y, x+1/2, -z'
   '-x, y+1/2, -z'
   'x, -y+1/2, z'
   'x+1/2, -y, -z'
   '-x+1/2, y, z'
   'y+1/2, x+1/2, -z'
   '-y+1/2, -x+1/2, z'
   '-y, -x, -z'
   'y, x, z'

loop_
   _atom_site_label
   _atom_site_occupancy
   _atom_site_fract_x
   _atom_site_fract_y
   _atom_site_fract_z
   _atom_site_thermal_displace_type
   _atom_site_B_iso_or_equiv
   _atom_site_type_symbol
   La       1    0.25      0.25      0.1488(2)   Biso  0.59  La
   Fe       1    0.75      0.25      0.5         Biso  0.56  Fe
   P        1    0.25      0.25      0.6348(3)   Biso  0.61  P
   O        1    0.75      0.25      0           Biso  0.66  O
