#======================================================================

# CRYSTAL DATA

#----------------------------------------------------------------------

_pd_phase_name                         'LaScO3'
_cell_length_a                         5.794(1)
_cell_length_b                         8.095(1)
_cell_length_c                         5.678(1)
_cell_angle_alpha                      90
_cell_angle_beta                       90
_cell_angle_gamma                      90
_symmetry_space_group_name_H-M         'P n m a'
_symmetry_Int_Tables_number            62

loop_
_symmetry_equiv_pos_as_xyz
   'x, y, z'
   '-x, -y, -z'
   '-x+1/2, -y, z+1/2'
   'x+1/2, y, -z+1/2'
   '-x, y+1/2, -z'
   'x, -y+1/2, z'
   'x+1/2, -y+1/2, -z+1/2'
   '-x+1/2, y+1/2, z+1/2'

loop_
   _atom_site_label
   _atom_site_occupancy
   _atom_site_fract_x
   _atom_site_fract_y
   _atom_site_fract_z
   _atom_site_thermal_displace_type
   _atom_site_B_iso_or_equiv
   _atom_site_type_symbol
   La       1   -0.0429(2)    0.25        -0.0111(3)   Biso  0.41  La
   Sc       1    0            0            0.5         Biso  0.52  Sc
   O1       1    0.536(2)     0.25         0.094(2)    Biso  0.8   O
   O2       1    0.203(2)     0.061(1)     0.793(2)    Biso  0.8   O
