#======================================================================

# CRYSTAL DATA

#----------------------------------------------------------------------

_pd_phase_name                         'LiCoO2'
_cell_length_a                         2.8156(6)
_cell_length_b                         2.8156(6)
_cell_length_c                         14.0542(6)
_cell_angle_alpha                      90
_cell_angle_beta                       90
_cell_angle_gamma                      120
_symmetry_space_group_name_H-M         'R -3 m '
_symmetry_Int_Tables_number            166

loop_
_symmetry_equiv_pos_as_xyz
   'x, y, z'
   '-x, -y, -z'
   '-y, x-y, z'
   'y, -x+y, -z'
   '-x+y, -x, z'
   'x-y, x, -z'
   'y, x, -z'
   '-y, -x, z'
   'x-y, -y, -z'
   '-x+y, y, z'
   '-x, -x+y, -z'
   'x, x-y, z'
   'x+2/3, y+1/3, z+1/3'
   '-x+2/3, -y+1/3, -z+1/3'
   '-y+2/3, x-y+1/3, z+1/3'
   'y+2/3, -x+y+1/3, -z+1/3'
   '-x+y+2/3, -x+1/3, z+1/3'
   'x-y+2/3, x+1/3, -z+1/3'
   'y+2/3, x+1/3, -z+1/3'
   '-y+2/3, -x+1/3, z+1/3'
   'x-y+2/3, -y+1/3, -z+1/3'
   '-x+y+2/3, y+1/3, z+1/3'
   '-x+2/3, -x+y+1/3, -z+1/3'
   'x+2/3, x-y+1/3, z+1/3'
   'x+1/3, y+2/3, z+2/3'
   '-x+1/3, -y+2/3, -z+2/3'
   '-y+1/3, x-y+2/3, z+2/3'
   'y+1/3, -x+y+2/3, -z+2/3'
   '-x+y+1/3, -x+2/3, z+2/3'
   'x-y+1/3, x+2/3, -z+2/3'
   'y+1/3, x+2/3, -z+2/3'
   '-y+1/3, -x+2/3, z+2/3'
   'x-y+1/3, -y+2/3, -z+2/3'
   '-x+y+1/3, y+2/3, z+2/3'
   '-x+1/3, -x+y+2/3, -z+2/3'
   'x+1/3, x-y+2/3, z+2/3'

loop_
   _atom_site_label
   _atom_site_occupancy
   _atom_site_fract_x
   _atom_site_fract_y
   _atom_site_fract_z
   _atom_site_thermal_displace_type
   _atom_site_B_iso_or_equiv
   _atom_site_type_symbol
   Li       1    0            0            0           Biso 0.95   Li
   Co       1    0            0            0.25        Biso 0.257  Co
   O        1    0            0            0.23968(6)  Biso 0.37   O
