#======================================================================

# CRYSTAL DATA

#----------------------------------------------------------------------

_pd_phase_name                         'Tl1.89Ba2Ca2Cu3O9.86'
_cell_length_a                         3.8487(1)
_cell_length_b                         3.8487(1)
_cell_length_c                         35.6620(15)
_cell_angle_alpha                      90
_cell_angle_beta                       90
_cell_angle_gamma                      90
_symmetry_space_group_name_H-M         'I 4/m m m'
_symmetry_Int_Tables_number            139

loop_
_symmetry_equiv_pos_as_xyz
   'x, y, z'
   '-x, -y, -z'
   '-x, -y, z'
   'x, y, -z'
   '-y, x, z'
   'y, -x, -z'
   'y, -x, z'
   '-y, x, -z'
   '-x, y, -z'
   'x, -y, z'
   'x, -y, -z'
   '-x, y, z'
   'y, x, -z'
   '-y, -x, z'
   '-y, -x, -z'
   'y, x, z'
   'x+1/2, y+1/2, z+1/2'
   '-x+1/2, -y+1/2, -z+1/2'
   '-x+1/2, -y+1/2, z+1/2'
   'x+1/2, y+1/2, -z+1/2'
   '-y+1/2, x+1/2, z+1/2'
   'y+1/2, -x+1/2, -z+1/2'
   'y+1/2, -x+1/2, z+1/2'
   '-y+1/2, x+1/2, -z+1/2'
   '-x+1/2, y+1/2, -z+1/2'
   'x+1/2, -y+1/2, z+1/2'
   'x+1/2, -y+1/2, -z+1/2'
   '-x+1/2, y+1/2, z+1/2'
   'y+1/2, x+1/2, -z+1/2'
   '-y+1/2, -x+1/2, z+1/2'
   '-y+1/2, -x+1/2, -z+1/2'
   'y+1/2, x+1/2, z+1/2'

loop_
   _atom_site_label
   _atom_site_occupancy
   _atom_site_fract_x
   _atom_site_fract_y
   _atom_site_fract_z
   _atom_site_thermal_displace_type
   _atom_site_B_iso_or_equiv
   _atom_site_type_symbol
   Tl       1    0.5        0.5        0.2195(1)   Biso  0.8   Tl
   Ba       1    0          0          0.1444(2)   Biso  0.5   Ba
   Ca       1    0          0          0.0454(2)   Biso  0.1   Ca
   Cu1      1    0.5        0.5        0           Biso  0.3   Cu
   Cu2      1    0.5        0.5        0.0886(1)   Biso  0.1   Cu
   O1       1    0.5        0          0           Biso  0.6   O
   O2       1    0.5        0          0.0878(1)   Biso  0.8   O
   O3       1    0.5        0.5        0.1650(2)   Biso  0.9   O
   O4       1    0.601(4)   0.5        0.2750(2)   Biso  -0.5  O
