#======================================================================

# CRYSTAL DATA

#----------------------------------------------------------------------

_pd_phase_name                         'Y2O3'
_cell_length_a                         10.5981(7)
_cell_length_b                         10.5981(7)
_cell_length_c                         10.5981(7)
_cell_angle_alpha                      90
_cell_angle_beta                       90
_cell_angle_gamma                      90
_symmetry_space_group_name_H-M         'I a -3 '
_symmetry_Int_Tables_number            206

loop_
_symmetry_equiv_pos_as_xyz
   'x, y, z'
   '-x, -y, -z'
   '-x+1/2, -y, z+1/2'
   'x+1/2, y, -z+1/2'
   '-x, y+1/2, -z+1/2'
   'x, -y+1/2, z+1/2'
   'x+1/2, -y+1/2, -z'
   '-x+1/2, y+1/2, z'
   'z, x, y'
   '-z, -x, -y'
   'z+1/2, -x+1/2, -y'
   '-z+1/2, x+1/2, y'
   '-z+1/2, -x, y+1/2'
   'z+1/2, x, -y+1/2'
   '-z, x+1/2, -y+1/2'
   'z, -x+1/2, y+1/2'
   'y, z, x'
   '-y, -z, -x'
   '-y, z+1/2, -x+1/2'
   'y, -z+1/2, x+1/2'
   'y+1/2, -z+1/2, -x'
   '-y+1/2, z+1/2, x'
   '-y+1/2, -z, x+1/2'
   'y+1/2, z, -x+1/2'
   'x+1/2, y+1/2, z+1/2'
   '-x+1/2, -y+1/2, -z+1/2'
   '-x, -y+1/2, z'
   'x, y+1/2, -z'
   '-x+1/2, y, -z'
   'x+1/2, -y, z'
   'x, -y, -z+1/2'
   '-x, y, z+1/2'
   'z+1/2, x+1/2, y+1/2'
   '-z+1/2, -x+1/2, -y+1/2'
   'z, -x, -y+1/2'
   '-z, x, y+1/2'
   '-z, -x+1/2, y'
   'z, x+1/2, -y'
   '-z+1/2, x, -y'
   'z+1/2, -x, y'
   'y+1/2, z+1/2, x+1/2'
   '-y+1/2, -z+1/2, -x+1/2'
   '-y+1/2, z, -x'
   'y+1/2, -z, x'
   'y, -z, -x+1/2'
   '-y, z, x+1/2'
   '-y, -z+1/2, x'
   'y, z+1/2, -x'

loop_
   _atom_site_label
   _atom_site_occupancy
   _atom_site_fract_x
   _atom_site_fract_y
   _atom_site_fract_z
   _atom_site_thermal_displace_type
   _atom_site_B_iso_or_equiv
   _atom_site_type_symbol
   Y1       1    0.25         0.25         0.25        Biso  0.25  Y
   Y2       1    0.96764(3)   0            0.25        Biso  0.21  Y
   O        1    0.3907(2)    0.1518(2)    0.3801(2)   Biso  0.38  O
